Version 4
SHEET 1 2532 680
WIRE -496 -272 -592 -272
WIRE -352 -272 -416 -272
WIRE 16 -272 -160 -272
WIRE -592 -176 -592 -192
WIRE -352 -176 -592 -176
WIRE 16 -112 16 -272
WIRE 160 -80 160 -192
WIRE 16 0 16 -32
WIRE 80 0 16 0
WIRE 112 0 80 0
WIRE 16 16 16 0
WIRE 80 16 80 0
WIRE 80 96 80 80
WIRE 80 96 16 96
WIRE 160 96 160 16
WIRE 160 96 80 96
WIRE 160 192 160 176
FLAG 160 -272 0
FLAG 160 192 0
FLAG -592 -176 0
FLAG -160 -176 0
SYMBOL pmos 112 -80 R0
SYMATTR InstName M2
SYMATTR Value Si7137DP
SYMBOL voltage 160 80 R0
WINDOW 123 0 0 Left 0
WINDOW 39 0 0 Left 0
SYMATTR InstName V1
SYMATTR Value 240
SYMBOL res 32 112 R180
WINDOW 0 36 76 Left 2
WINDOW 3 36 40 Left 2
SYMATTR InstName R1
SYMATTR Value 100k
SYMBOL res 0 -128 R0
SYMATTR InstName R2
SYMATTR Value 1000k
SYMBOL res 144 -288 R0
SYMATTR InstName R3
SYMATTR Value 100
SYMBOL voltage -592 -288 R0
WINDOW 123 0 0 Left 0
WINDOW 39 0 0 Left 0
SYMATTR InstName V2
SYMATTR Value SINE(1 2 1)
SYMBOL res -512 -256 R270
WINDOW 0 32 56 VTop 2
WINDOW 3 0 56 VBottom 2
SYMATTR InstName R4
SYMATTR Value 745
SYMBOL Optos\\PC817A -256 -224 R0
SYMATTR InstName U1
SYMBOL zener 64 16 R0
SYMATTR InstName D1
SYMATTR Value KDZ20B
SYMATTR Description Diode
SYMATTR Type diode
TEXT -544 136 Left 2 !.tran 5
